2 
 10.0 10.0 10.0 
 Ar 0.0 0.0 0.0 
 Ar 0.000000 0.000000 0.000000 
2 
 10.0 10.0 10.0 
 Ar 0.0 0.0 0.0 
 Ar 1.541411 1.596176 1.568677 
2 
 10.0 10.0 10.0 
 Ar 0.0 0.0 0.0 
 Ar 1.701087 1.888053 1.542268 
2 
 10.0 10.0 10.0 
 Ar 0.0 0.0 0.0 
 Ar 1.380273 1.781316 1.370419 
2 
 10.0 10.0 10.0 
 Ar 0.0 0.0 0.0 
 Ar 1.563501 1.572403 1.484352 
2 
 10.0 10.0 10.0 
 Ar 0.0 0.0 0.0 
 Ar 1.722226 1.342563 1.607587 
2 
 10.0 10.0 10.0 
 Ar 0.0 0.0 0.0 
 Ar 1.357749 1.584669 1.620732 
